*SPEF "ieee 1481-1999"
*DESIGN "i2s_example"
*DATE "20:35:19 Sunday November 03, 2024"
*VENDOR "The OpenROAD Project"
*PROGRAM "OpenROAD"
*VERSION "edf00dff99f6c40d67a30c0e22a8191c5d2ed9d6"
*DESIGN_FLOW "NAME_SCOPE LOCAL" "PIN_CAP NONE"
*DIVIDER /
*DELIMITER :
*BUS_DELIMITER []
*T_UNIT 1 NS
*C_UNIT 1 PF
*R_UNIT 1 OHM
*L_UNIT 1 HENRY

*NAME_MAP
*1 io_in
*2 net106
*3 net107
*4 net109
*5 net110
*6 net108
*7 la_data_in
*8 la_data_out
*9 la_oenb
*12 wb_clk_i
*13 wb_rst_i
*14 wbs_ack_o
*15 wbs_adr_i[0]
*16 wbs_adr_i[10]
*17 wbs_adr_i[11]
*18 wbs_adr_i[12]
*19 wbs_adr_i[13]
*20 wbs_adr_i[14]
*21 wbs_adr_i[15]
*22 wbs_adr_i[16]
*23 wbs_adr_i[17]
*24 wbs_adr_i[18]
*25 wbs_adr_i[19]
*26 wbs_adr_i[1]
*27 wbs_adr_i[20]
*28 wbs_adr_i[21]
*29 wbs_adr_i[22]
*30 wbs_adr_i[23]
*31 wbs_adr_i[24]
*32 wbs_adr_i[25]
*33 wbs_adr_i[26]
*34 wbs_adr_i[27]
*35 wbs_adr_i[28]
*36 wbs_adr_i[29]
*37 wbs_adr_i[2]
*38 wbs_adr_i[30]
*39 wbs_adr_i[31]
*40 wbs_adr_i[3]
*41 wbs_adr_i[4]
*42 wbs_adr_i[5]
*43 wbs_adr_i[6]
*44 wbs_adr_i[7]
*45 wbs_adr_i[8]
*46 wbs_adr_i[9]
*47 wbs_cyc_i
*48 wbs_dat_i[0]
*49 wbs_dat_i[10]
*50 wbs_dat_i[11]
*51 wbs_dat_i[12]
*52 wbs_dat_i[13]
*53 wbs_dat_i[14]
*54 wbs_dat_i[15]
*55 wbs_dat_i[16]
*56 wbs_dat_i[17]
*57 wbs_dat_i[18]
*58 wbs_dat_i[19]
*59 wbs_dat_i[1]
*60 wbs_dat_i[20]
*61 wbs_dat_i[21]
*62 wbs_dat_i[22]
*63 wbs_dat_i[23]
*64 wbs_dat_i[24]
*65 wbs_dat_i[25]
*66 wbs_dat_i[26]
*67 wbs_dat_i[27]
*68 wbs_dat_i[28]
*69 wbs_dat_i[29]
*70 wbs_dat_i[2]
*71 wbs_dat_i[30]
*72 wbs_dat_i[31]
*73 wbs_dat_i[3]
*74 wbs_dat_i[4]
*75 wbs_dat_i[5]
*76 wbs_dat_i[6]
*77 wbs_dat_i[7]
*78 wbs_dat_i[8]
*79 wbs_dat_i[9]
*80 wbs_dat_o[0]
*81 wbs_dat_o[10]
*82 wbs_dat_o[11]
*83 wbs_dat_o[12]
*84 wbs_dat_o[13]
*85 wbs_dat_o[14]
*86 wbs_dat_o[15]
*87 wbs_dat_o[16]
*88 wbs_dat_o[17]
*89 wbs_dat_o[18]
*90 wbs_dat_o[19]
*91 wbs_dat_o[1]
*92 wbs_dat_o[20]
*93 wbs_dat_o[21]
*94 wbs_dat_o[22]
*95 wbs_dat_o[23]
*96 wbs_dat_o[24]
*97 wbs_dat_o[25]
*98 wbs_dat_o[26]
*99 wbs_dat_o[27]
*100 wbs_dat_o[28]
*101 wbs_dat_o[29]
*102 wbs_dat_o[2]
*103 wbs_dat_o[30]
*104 wbs_dat_o[31]
*105 wbs_dat_o[3]
*106 wbs_dat_o[4]
*107 wbs_dat_o[5]
*108 wbs_dat_o[6]
*109 wbs_dat_o[7]
*110 wbs_dat_o[8]
*111 wbs_dat_o[9]
*112 wbs_sel_i[0]
*113 wbs_sel_i[1]
*114 wbs_sel_i[2]
*115 wbs_sel_i[3]
*116 wbs_stb_i
*117 wbs_we_i
*118 _000_
*119 _001_
*120 _002_
*121 _003_
*122 _004_
*123 _005_
*124 _006_
*125 _007_
*126 _008_
*127 _009_
*128 _010_
*129 _011_
*130 _012_
*131 _013_
*132 _014_
*133 _015_
*134 _016_
*135 _017_
*136 _018_
*137 _019_
*138 _020_
*139 _021_
*140 _022_
*141 _023_
*142 _024_
*143 _025_
*144 _026_
*145 _027_
*146 _028_
*147 _029_
*148 _030_
*149 _031_
*150 _032_
*151 _033_
*152 _034_
*153 _035_
*154 _036_
*155 _037_
*156 _038_
*157 _039_
*158 _040_
*159 _041_
*160 _042_
*161 _043_
*162 _044_
*163 _045_
*164 _046_
*165 _047_
*166 _048_
*167 _049_
*168 _050_
*169 _051_
*170 _052_
*171 _053_
*172 _054_
*173 _055_
*174 _056_
*175 _057_
*176 _058_
*177 _059_
*178 _060_
*179 _061_
*180 _062_
*181 _063_
*182 _064_
*183 _065_
*184 _066_
*185 _067_
*186 _068_
*187 _069_
*188 _070_
*189 _071_
*190 _072_
*191 _073_
*192 _074_
*193 _075_
*194 _076_
*195 _077_
*196 _078_
*197 _079_
*198 _080_
*199 _081_
*200 _082_
*201 _083_
*202 _084_
*203 _085_
*204 _086_
*205 _087_
*206 _088_
*207 _089_
*208 _090_
*209 _091_
*210 _092_
*211 _093_
*212 _094_
*213 _095_
*214 _096_
*215 _097_
*216 _098_
*217 _099_
*218 _100_
*219 _101_
*220 _102_
*221 _103_
*222 _104_
*223 _105_
*224 _106_
*225 _107_
*226 _108_
*227 _109_
*228 _110_
*229 _111_
*230 _112_
*231 _113_
*232 _114_
*233 _115_
*234 _116_
*235 _117_
*236 _118_
*237 _119_
*238 _120_
*239 _121_
*240 _122_
*241 _123_
*242 _124_
*243 _125_
*244 _126_
*245 _127_
*246 _128_
*247 _129_
*248 _130_
*249 _131_
*250 _132_
*251 _133_
*252 _134_
*253 _135_
*254 _136_
*255 _137_
*256 _138_
*257 _139_
*258 _140_
*259 _141_
*260 _142_
*261 _143_
*262 _144_
*263 _145_
*264 _146_
*265 _147_
*266 _148_
*267 _149_
*268 _150_
*269 _151_
*270 _152_
*271 _153_
*272 _154_
*273 _155_
*274 _156_
*275 _157_
*276 _158_
*277 _159_
*278 _160_
*279 _161_
*280 _162_
*281 _163_
*282 _164_
*283 _165_
*284 _166_
*285 _167_
*286 _168_
*287 _169_
*288 _170_
*289 _171_
*290 _172_
*291 _173_
*292 _174_
*293 _175_
*294 _176_
*295 _177_
*296 _178_
*297 _179_
*298 _180_
*299 _181_
*300 _182_
*301 _183_
*302 _184_
*303 _185_
*304 _186_
*305 _187_
*306 _188_
*307 _189_
*308 _190_
*309 _191_
*310 _192_
*311 _193_
*312 _194_
*313 _195_
*314 _196_
*315 _197_
*316 _198_
*317 _199_
*318 _200_
*319 _201_
*320 _202_
*321 _203_
*322 _204_
*323 _205_
*324 _206_
*325 _207_
*326 _208_
*327 _209_
*328 _210_
*329 _211_
*330 _212_
*331 _213_
*332 _214_
*333 _215_
*334 _216_
*335 _217_
*336 _218_
*337 _219_
*338 _220_
*339 _221_
*340 _222_
*341 _223_
*342 _224_
*343 _225_
*344 _226_
*345 _227_
*346 _228_
*347 _229_
*348 _230_
*349 _231_
*350 _232_
*351 _233_
*352 _234_
*353 _235_
*354 _236_
*355 _237_
*356 _238_
*357 _239_
*358 _240_
*359 _241_
*360 _242_
*361 _243_
*362 _244_
*363 _245_
*364 _246_
*365 _247_
*366 _248_
*367 _249_
*368 _250_
*369 _251_
*370 _252_
*371 _253_
*372 _254_
*373 _255_
*374 _256_
*375 _257_
*376 _258_
*377 _259_
*378 _260_
*379 _261_
*380 _262_
*381 _263_
*382 _264_
*383 _265_
*384 _266_
*385 _267_
*386 _268_
*387 _269_
*388 _270_
*389 _271_
*390 _272_
*391 _273_
*392 _274_
*393 _275_
*394 _276_
*395 _277_
*396 _278_
*397 _279_
*398 _280_
*399 _281_
*400 _282_
*401 _283_
*402 _284_
*403 _285_
*404 _286_
*405 _287_
*406 _288_
*407 _289_
*408 _290_
*409 _291_
*410 _292_
*411 _293_
*412 _294_
*413 _295_
*414 _296_
*415 _297_
*416 _298_
*417 _299_
*418 _300_
*419 _301_
*420 _302_
*421 _303_
*422 _304_
*423 _305_
*424 _306_
*425 _307_
*426 _308_
*427 _309_
*428 _310_
*429 _311_
*430 _312_
*431 _313_
*432 _314_
*433 _315_
*434 _316_
*435 _317_
*436 _318_
*437 _319_
*438 _320_
*439 _321_
*440 _322_
*441 _323_
*442 _324_
*443 _325_
*444 _326_
*445 _327_
*446 _328_
*447 _329_
*448 _330_
*449 _331_
*450 _332_
*451 _333_
*452 _334_
*453 _335_
*454 _336_
*455 clknet_0_wb_clk_i
*456 clknet_2_0_0_wb_clk_i
*457 clknet_2_1_0_wb_clk_i
*458 clknet_2_2_0_wb_clk_i
*459 clknet_2_3_0_wb_clk_i
*460 clknet_3_0__leaf_wb_clk_i
*461 clknet_3_1__leaf_wb_clk_i
*462 clknet_3_2__leaf_wb_clk_i
*463 clknet_3_3__leaf_wb_clk_i
*464 clknet_3_4__leaf_wb_clk_i
*465 clknet_3_5__leaf_wb_clk_i
*466 clknet_3_6__leaf_wb_clk_i
*467 clknet_3_7__leaf_wb_clk_i
*468 i2s_peripheral\.AVGT_REG\[0\]
*469 i2s_peripheral\.AVGT_REG\[10\]
*470 i2s_peripheral\.AVGT_REG\[11\]
*471 i2s_peripheral\.AVGT_REG\[12\]
*472 i2s_peripheral\.AVGT_REG\[13\]
*473 i2s_peripheral\.AVGT_REG\[14\]
*474 i2s_peripheral\.AVGT_REG\[15\]
*475 i2s_peripheral\.AVGT_REG\[16\]
*476 i2s_peripheral\.AVGT_REG\[17\]
*477 i2s_peripheral\.AVGT_REG\[18\]
*478 i2s_peripheral\.AVGT_REG\[19\]
*479 i2s_peripheral\.AVGT_REG\[1\]
*480 i2s_peripheral\.AVGT_REG\[20\]
*481 i2s_peripheral\.AVGT_REG\[21\]
*482 i2s_peripheral\.AVGT_REG\[22\]
*483 i2s_peripheral\.AVGT_REG\[23\]
*484 i2s_peripheral\.AVGT_REG\[24\]
*485 i2s_peripheral\.AVGT_REG\[25\]
*486 i2s_peripheral\.AVGT_REG\[26\]
*487 i2s_peripheral\.AVGT_REG\[27\]
*488 i2s_peripheral\.AVGT_REG\[28\]
*489 i2s_peripheral\.AVGT_REG\[29\]
*490 i2s_peripheral\.AVGT_REG\[2\]
*491 i2s_peripheral\.AVGT_REG\[30\]
*492 i2s_peripheral\.AVGT_REG\[31\]
*493 i2s_peripheral\.AVGT_REG\[3\]
*494 i2s_peripheral\.AVGT_REG\[4\]
*495 i2s_peripheral\.AVGT_REG\[5\]
*496 i2s_peripheral\.AVGT_REG\[6\]
*497 i2s_peripheral\.AVGT_REG\[7\]
*498 i2s_peripheral\.AVGT_REG\[8\]
*499 i2s_peripheral\.AVGT_REG\[9\]
*500 i2s_peripheral\.CFG_REG\[0\]
*501 i2s_peripheral\.CFG_REG\[10\]
*502 i2s_peripheral\.CFG_REG\[11\]
*503 i2s_peripheral\.CFG_REG\[1\]
*504 i2s_peripheral\.CFG_REG\[2\]
*505 i2s_peripheral\.CFG_REG\[3\]
*506 i2s_peripheral\.CFG_REG\[4\]
*507 i2s_peripheral\.CFG_REG\[5\]
*508 i2s_peripheral\.CFG_REG\[6\]
*509 i2s_peripheral\.CFG_REG\[7\]
*510 i2s_peripheral\.CFG_REG\[8\]
*511 i2s_peripheral\.CFG_REG\[9\]
*512 i2s_peripheral\.IC_REG\[0\]
*513 i2s_peripheral\.IC_REG\[1\]
*514 i2s_peripheral\.IC_REG\[2\]
*515 i2s_peripheral\.IC_REG\[3\]
*516 i2s_peripheral\.IC_REG\[4\]
*517 i2s_peripheral\.IC_REG\[5\]
*518 i2s_peripheral\.IM_REG\[0\]
*519 i2s_peripheral\.IM_REG\[1\]
*520 i2s_peripheral\.IM_REG\[2\]
*521 i2s_peripheral\.IM_REG\[3\]
*522 i2s_peripheral\.IM_REG\[4\]
*523 i2s_peripheral\.IM_REG\[5\]
*524 i2s_peripheral\.PR_REG\[0\]
*525 i2s_peripheral\.PR_REG\[1\]
*526 i2s_peripheral\.PR_REG\[2\]
*527 i2s_peripheral\.PR_REG\[3\]
*528 i2s_peripheral\.PR_REG\[4\]
*529 i2s_peripheral\.PR_REG\[5\]
*530 i2s_peripheral\.PR_REG\[6\]
*531 i2s_peripheral\.PR_REG\[7\]
*532 i2s_peripheral\.RIS_REG\[0\]
*533 i2s_peripheral\.RIS_REG\[1\]
*534 i2s_peripheral\.RIS_REG\[3\]
*535 i2s_peripheral\.RIS_REG\[4\]
*536 i2s_peripheral\.RIS_REG\[5\]
*537 i2s_peripheral\.RX_FIFO_FLUSH_REG
*538 i2s_peripheral\.RX_FIFO_THRESHOLD_REG\[0\]
*539 i2s_peripheral\.RX_FIFO_THRESHOLD_REG\[1\]
*540 i2s_peripheral\.RX_FIFO_THRESHOLD_REG\[2\]
*541 i2s_peripheral\.RX_FIFO_THRESHOLD_REG\[3\]
*542 i2s_peripheral\.ZCRT_REG\[0\]
*543 i2s_peripheral\.ZCRT_REG\[10\]
*544 i2s_peripheral\.ZCRT_REG\[11\]
*545 i2s_peripheral\.ZCRT_REG\[12\]
*546 i2s_peripheral\.ZCRT_REG\[13\]
*547 i2s_peripheral\.ZCRT_REG\[14\]
*548 i2s_peripheral\.ZCRT_REG\[15\]
*549 i2s_peripheral\.ZCRT_REG\[16\]
*550 i2s_peripheral\.ZCRT_REG\[17\]
*551 i2s_peripheral\.ZCRT_REG\[18\]
*552 i2s_peripheral\.ZCRT_REG\[19\]
*553 i2s_peripheral\.ZCRT_REG\[1\]
*554 i2s_peripheral\.ZCRT_REG\[20\]
*555 i2s_peripheral\.ZCRT_REG\[21\]
*556 i2s_peripheral\.ZCRT_REG\[22\]
*557 i2s_peripheral\.ZCRT_REG\[23\]
*558 i2s_peripheral\.ZCRT_REG\[24\]
*559 i2s_peripheral\.ZCRT_REG\[25\]
*560 i2s_peripheral\.ZCRT_REG\[26\]
*561 i2s_peripheral\.ZCRT_REG\[27\]
*562 i2s_peripheral\.ZCRT_REG\[28\]
*563 i2s_peripheral\.ZCRT_REG\[29\]
*564 i2s_peripheral\.ZCRT_REG\[2\]
*565 i2s_peripheral\.ZCRT_REG\[30\]
*566 i2s_peripheral\.ZCRT_REG\[31\]
*567 i2s_peripheral\.ZCRT_REG\[3\]
*568 i2s_peripheral\.ZCRT_REG\[4\]
*569 i2s_peripheral\.ZCRT_REG\[5\]
*570 i2s_peripheral\.ZCRT_REG\[6\]
*571 i2s_peripheral\.ZCRT_REG\[7\]
*572 i2s_peripheral\.ZCRT_REG\[8\]
*573 i2s_peripheral\.ZCRT_REG\[9\]
*574 i2s_peripheral\.avg_en
*575 i2s_peripheral\.en
*576 i2s_peripheral\.fifo_en
*577 i2s_peripheral\.instance_to_wrap\.zcr_en
*578 net1
*579 net10
*580 net100
*581 net101
*582 net102
*583 net103
*584 net104
*585 net105
*586 net11
*587 net111
*588 net112
*589 net113
*590 net114
*591 net115
*592 net116
*593 net117
*594 net118
*595 net119
*596 net12
*597 net120
*598 net121
*599 net122
*600 net123
*601 net124
*602 net125
*603 net126
*604 net127
*605 net128
*606 net129
*607 net13
*608 net130
*609 net131
*610 net132
*611 net133
*612 net134
*613 net135
*614 net136
*615 net137
*616 net138
*617 net139
*618 net14
*619 net140
*620 net141
*621 net142
*622 net143
*623 net144
*624 net145
*625 net146
*626 net147
*627 net148
*628 net149
*629 net15
*630 net150
*631 net151
*632 net152
*633 net153
*634 net154
*635 net155
*636 net156
*637 net157
*638 net158
*639 net159
*640 net16
*641 net160
*642 net161
*643 net162
*644 net163
*645 net164
*646 net165
*647 net166
*648 net167
*649 net168
*650 net169
*651 net17
*652 net170
*653 net171
*654 net172
*655 net173
*656 net174
*657 net175
*658 net176
*659 net177
*660 net178
*661 net179
*662 net18
*663 net180
*664 net181
*665 net182
*666 net183
*667 net184
*668 net185
*669 net186
*670 net187
*671 net188
*672 net189
*673 net19
*674 net190
*675 net191
*676 net192
*677 net193
*678 net194
*679 net195
*680 net196
*681 net197
*682 net198
*683 net199
*684 net2
*685 net20
*686 net200
*687 net201
*688 net202
*689 net203
*690 net204
*691 net205
*692 net206
*693 net207
*694 net208
*695 net209
*696 net21
*697 net210
*698 net211
*699 net212
*700 net213
*701 net214
*702 net215
*703 net216
*704 net217
*705 net218
*706 net219
*707 net22
*708 net220
*709 net221
*710 net222
*711 net223
*712 net224
*713 net225
*714 net226
*715 net227
*716 net228
*717 net229
*718 net23
*719 net230
*720 net231
*721 net232
*722 net233
*723 net234
*724 net235
*725 net236
*726 net237
*727 net238
*728 net239
*729 net24
*730 net240
*731 net241
*732 net242
*733 net243
*734 net244
*735 net245
*736 net246
*737 net247
*738 net248
*739 net249
*740 net25
*741 net250
*742 net251
*743 net252
*744 net253
*745 net254
*746 net255
*747 net256
*748 net257
*749 net258
*750 net259
*751 net26
*752 net260
*753 net261
*754 net262
*755 net263
*756 net264
*757 net265
*758 net266
*759 net267
*760 net268
*761 net269
*762 net27
*763 net270
*764 net271
*765 net272
*766 net273
*767 net274
*768 net275
*769 net276
*770 net277
*771 net278
*772 net279
*773 net28
*774 net280
*775 net281
*776 net282
*777 net283
*778 net284
*779 net285
*780 net286
*781 net287
*782 net288
*783 net289
*784 net29
*785 net290
*786 net291
*787 net292
*788 net293
*789 net294
*790 net295
*791 net296
*792 net297
*793 net298
*794 net299
*795 net3
*796 net30
*797 net300
*798 net301
*799 net302
*800 net303
*801 net304
*802 net305
*803 net306
*804 net307
*805 net308
*806 net309
*807 net31
*808 net310
*809 net311
*810 net312
*811 net313
*812 net314
*813 net315
*814 net316
*815 net317
*816 net318
*817 net319
*818 net32
*819 net320
*820 net321
*821 net322
*822 net323
*823 net324
*824 net325
*825 net326
*826 net327
*827 net328
*828 net329
*829 net33
*830 net330
*831 net331
*832 net332
*833 net333
*834 net334
*835 net335
*836 net336
*837 net337
*838 net338
*839 net339
*840 net34
*841 net340
*842 net341
*843 net342
*844 net343
*845 net344
*846 net345
*847 net346
*848 net347
*849 net348
*850 net349
*851 net35
*852 net350
*853 net351
*854 net352
*855 net353
*856 net354
*857 net355
*858 net356
*859 net357
*860 net358
*861 net359
*862 net36
*863 net360
*864 net361
*865 net362
*866 net363
*867 net364
*868 net365
*869 net37
*870 net38
*871 net39
*872 net4
*873 net40
*874 net41
*875 net42
*876 net43
*877 net44
*878 net45
*879 net46
*880 net47
*881 net48
*882 net49
*883 net5
*884 net50
*885 net51
*886 net52
*887 net53
*888 net54
*889 net55
*890 net56
*891 net57
*892 net58
*893 net59
*894 net6
*895 net60
*896 net61
*897 net62
*898 net63
*899 net64
*900 net65
*901 net66
*902 net67
*903 net68
*904 net69
*905 net7
*906 net70
*907 net71
*908 net72
*909 net73
*910 net74
*911 net75
*912 net76
*913 net77
*914 net78
*915 net79
*916 net8
*917 net80
*918 net81
*919 net82
*920 net83
*921 net84
*922 net85
*923 net86
*924 net87
*925 net88
*926 net89
*927 net9
*928 net90
*929 net91
*930 net92
*931 net93
*932 net94
*933 net95
*934 net96
*935 net97
*936 net98
*937 net99
*938 ANTENNA__357__A1
*939 ANTENNA__358__A1
*940 ANTENNA__371__A1
*941 ANTENNA__372__A1
*942 ANTENNA__381__Y
*943 ANTENNA__382__X
*944 ANTENNA__383__Y
*945 ANTENNA__384__A1
*946 ANTENNA__384__S
*947 ANTENNA__385__A1
*948 ANTENNA__385__S
*949 ANTENNA__386__S
*950 ANTENNA__387__S
*951 ANTENNA__388__S
*952 ANTENNA__389__A1
*953 ANTENNA__389__S
*954 ANTENNA__390__A1
*955 ANTENNA__390__S
*956 ANTENNA__391__S
*957 ANTENNA__393__Y
*958 ANTENNA__394__X
*959 ANTENNA__395__B
*960 ANTENNA__396__S
*961 ANTENNA__397__S
*962 ANTENNA__398__S
*963 ANTENNA__399__S
*964 ANTENNA__400__S
*965 ANTENNA__401__S
*966 ANTENNA__402__S
*967 ANTENNA__403__S
*968 ANTENNA__404__S
*969 ANTENNA__405__S
*970 ANTENNA__406__S
*971 ANTENNA__407__A1
*972 ANTENNA__407__S
*973 ANTENNA__408__S
*974 ANTENNA__409__A1
*975 ANTENNA__409__S
*976 ANTENNA__410__S
*977 ANTENNA__411__S
*978 ANTENNA__412__S
*979 ANTENNA__413__S
*980 ANTENNA__414__S
*981 ANTENNA__415__S
*982 ANTENNA__416__A1
*983 ANTENNA__416__S
*984 ANTENNA__417__A1
*985 ANTENNA__417__S
*986 ANTENNA__418__A1
*987 ANTENNA__418__S
*988 ANTENNA__419__S
*989 ANTENNA__420__A1
*990 ANTENNA__420__S
*991 ANTENNA__421__A1
*992 ANTENNA__421__S
*993 ANTENNA__422__S
*994 ANTENNA__423__S
*995 ANTENNA__424__S
*996 ANTENNA__425__A1
*997 ANTENNA__425__S
*998 ANTENNA__426__A1
*999 ANTENNA__426__S
*1000 ANTENNA__427__S
*1001 ANTENNA__432__S
*1002 ANTENNA__433__S
*1003 ANTENNA__434__S
*1004 ANTENNA__435__S
*1005 ANTENNA__436__S
*1006 ANTENNA__437__S
*1007 ANTENNA__438__S
*1008 ANTENNA__439__S
*1009 ANTENNA__440__S
*1010 ANTENNA__441__S
*1011 ANTENNA__442__S
*1012 ANTENNA__443__A1
*1013 ANTENNA__443__S
*1014 ANTENNA__444__S
*1015 ANTENNA__445__A1
*1016 ANTENNA__445__S
*1017 ANTENNA__446__S
*1018 ANTENNA__447__S
*1019 ANTENNA__448__S
*1020 ANTENNA__449__S
*1021 ANTENNA__450__S
*1022 ANTENNA__451__S
*1023 ANTENNA__452__A1
*1024 ANTENNA__452__S
*1025 ANTENNA__453__A1
*1026 ANTENNA__453__S
*1027 ANTENNA__454__A1
*1028 ANTENNA__454__S
*1029 ANTENNA__455__S
*1030 ANTENNA__456__A1
*1031 ANTENNA__456__S
*1032 ANTENNA__457__A1
*1033 ANTENNA__457__S
*1034 ANTENNA__458__S
*1035 ANTENNA__459__S
*1036 ANTENNA__460__S
*1037 ANTENNA__461__A1
*1038 ANTENNA__461__S
*1039 ANTENNA__462__A1
*1040 ANTENNA__462__S
*1041 ANTENNA__463__S
*1042 ANTENNA__469__A1
*1043 ANTENNA__470__A1
*1044 ANTENNA__473__X
*1045 ANTENNA__475__A1
*1046 ANTENNA__475__S
*1047 ANTENNA__476__A1
*1048 ANTENNA__476__S
*1049 ANTENNA__477__A1
*1050 ANTENNA__477__S
*1051 ANTENNA__478__S
*1052 ANTENNA__479__A1
*1053 ANTENNA__479__S
*1054 ANTENNA__480__A1
*1055 ANTENNA__480__S
*1056 ANTENNA__481__S
*1057 ANTENNA__482__S
*1058 ANTENNA__483__S
*1059 ANTENNA__484__A1
*1060 ANTENNA__484__S
*1061 ANTENNA__485__A1
*1062 ANTENNA__485__S
*1063 ANTENNA__486__S
*1064 ANTENNA__493__A
*1065 ANTENNA__494__A
*1066 ANTENNA__508__B1
*1067 ANTENNA__512__C1
*1068 ANTENNA__513__A2
*1069 ANTENNA__513__B1
*1070 ANTENNA__514__A2
*1071 ANTENNA__514__X
*1072 ANTENNA__521__A2
*1073 ANTENNA__521__C1
*1074 ANTENNA__522__A2
*1075 ANTENNA__522__B1
*1076 ANTENNA__523__A2
*1077 ANTENNA__523__X
*1078 ANTENNA__529__A2
*1079 ANTENNA__529__C1
*1080 ANTENNA__530__B1
*1081 ANTENNA__530__X
*1082 ANTENNA__538__A2
*1083 ANTENNA__538__C1
*1084 ANTENNA__539__A2
*1085 ANTENNA__539__B1
*1086 ANTENNA__540__A2
*1087 ANTENNA__540__X
*1088 ANTENNA__543__A2
*1089 ANTENNA__543__C1
*1090 ANTENNA__544__A2
*1091 ANTENNA__545__A2
*1092 ANTENNA__549__A2
*1093 ANTENNA__549__B1
*1094 ANTENNA__550__A1
*1095 ANTENNA__551__A2
*1096 ANTENNA__551__B1
*1097 ANTENNA__552__A2
*1098 ANTENNA__553__X
*1099 ANTENNA__554__A
*1100 ANTENNA__554__B
*1101 ANTENNA__554__X
*1102 ANTENNA__555__B
*1103 ANTENNA__556__A2
*1104 ANTENNA__556__B1
*1105 ANTENNA__557__A2
*1106 ANTENNA__557__B1
*1107 ANTENNA__558__A2
*1108 ANTENNA__558__X
*1109 ANTENNA__559__B
*1110 ANTENNA__560__A2
*1111 ANTENNA__560__B1
*1112 ANTENNA__561__A2
*1113 ANTENNA__561__B1
*1114 ANTENNA__562__A2
*1115 ANTENNA__562__X
*1116 ANTENNA__563__A2
*1117 ANTENNA__563__C1
*1118 ANTENNA__564__A2
*1119 ANTENNA__565__B
*1120 ANTENNA__566__A2
*1121 ANTENNA__566__B1
*1122 ANTENNA__566__C1
*1123 ANTENNA__567__A2
*1124 ANTENNA__567__C1
*1125 ANTENNA__567__X
*1126 ANTENNA__568__B
*1127 ANTENNA__569__A2
*1128 ANTENNA__569__B1
*1129 ANTENNA__569__C1
*1130 ANTENNA__570__A2
*1131 ANTENNA__570__C1
*1132 ANTENNA__570__X
*1133 ANTENNA__571__B
*1134 ANTENNA__572__A2
*1135 ANTENNA__572__B1
*1136 ANTENNA__572__C1
*1137 ANTENNA__573__A2
*1138 ANTENNA__573__C1
*1139 ANTENNA__573__X
*1140 ANTENNA__574__A
*1141 ANTENNA__574__B
*1142 ANTENNA__574__C
*1143 ANTENNA__574__X
*1144 ANTENNA__575__A2
*1145 ANTENNA__575__B1
*1146 ANTENNA__575__C1
*1147 ANTENNA__576__A2
*1148 ANTENNA__576__B1
*1149 ANTENNA__576__C1
*1150 ANTENNA__577__A2
*1151 ANTENNA__577__B1
*1152 ANTENNA__578__A2
*1153 ANTENNA__578__B1
*1154 ANTENNA__578__C1
*1155 ANTENNA__579__A2
*1156 ANTENNA__579__B1
*1157 ANTENNA__579__C1
*1158 ANTENNA__580__A2
*1159 ANTENNA__580__B1
*1160 ANTENNA__581__A2
*1161 ANTENNA__581__B1
*1162 ANTENNA__581__C1
*1163 ANTENNA__581__X
*1164 ANTENNA__582__A2
*1165 ANTENNA__582__B1
*1166 ANTENNA__582__C1
*1167 ANTENNA__583__A2
*1168 ANTENNA__583__B1
*1169 ANTENNA__583__X
*1170 ANTENNA__584__A2
*1171 ANTENNA__584__B1
*1172 ANTENNA__584__C1
*1173 ANTENNA__585__A2
*1174 ANTENNA__585__B1
*1175 ANTENNA__586__A2
*1176 ANTENNA__586__B1
*1177 ANTENNA__586__C1
*1178 ANTENNA__587__A2
*1179 ANTENNA__587__B1
*1180 ANTENNA__588__A2
*1181 ANTENNA__588__B1
*1182 ANTENNA__588__C1
*1183 ANTENNA__589__A2
*1184 ANTENNA__589__B1
*1185 ANTENNA__589__C1
*1186 ANTENNA__590__A2
*1187 ANTENNA__590__B1
*1188 ANTENNA__590__C1
*1189 ANTENNA__591__A2
*1190 ANTENNA__591__B1
*1191 ANTENNA__591__C1
*1192 ANTENNA__592__A2
*1193 ANTENNA__592__B1
*1194 ANTENNA__593__A2
*1195 ANTENNA__593__B1
*1196 ANTENNA__593__C1
*1197 ANTENNA__594__A2
*1198 ANTENNA__594__B1
*1199 ANTENNA__594__C1
*1200 ANTENNA__597__A
*1201 ANTENNA__599__A
*1202 ANTENNA__602__A
*1203 ANTENNA__603__A
*1204 ANTENNA__605__A
*1205 ANTENNA__606__A
*1206 ANTENNA__607__A
*1207 ANTENNA__608__A
*1208 ANTENNA__609__A
*1209 ANTENNA__610__A
*1210 ANTENNA__611__A
*1211 ANTENNA__612__A
*1212 ANTENNA__613__A
*1213 ANTENNA__614__A
*1214 ANTENNA__618__A
*1215 ANTENNA__619__A
*1216 ANTENNA__621__A
*1217 ANTENNA__622__A
*1218 ANTENNA__623__A
*1219 ANTENNA__624__A
*1220 ANTENNA__625__A
*1221 ANTENNA__626__A
*1222 ANTENNA__627__A
*1223 ANTENNA__629__A
*1224 ANTENNA__630__A
*1225 ANTENNA__632__A
*1226 ANTENNA__634__A
*1227 ANTENNA__636__A
*1228 ANTENNA__641__A
*1229 ANTENNA__645__A
*1230 ANTENNA__646__A
*1231 ANTENNA__647__A
*1232 ANTENNA__648__A
*1233 ANTENNA__650__A
*1234 ANTENNA__651__A
*1235 ANTENNA__652__A
*1236 ANTENNA__654__A
*1237 ANTENNA__655__A
*1238 ANTENNA__656__A
*1239 ANTENNA__657__A
*1240 ANTENNA__658__A
*1241 ANTENNA__659__A
*1242 ANTENNA__660__A
*1243 ANTENNA__662__A
*1244 ANTENNA__663__A
*1245 ANTENNA__665__A
*1246 ANTENNA__667__A
*1247 ANTENNA__669__A
*1248 ANTENNA__670__A
*1249 ANTENNA__671__A
*1250 ANTENNA__674__A
*1251 ANTENNA__675__A
*1252 ANTENNA__676__A
*1253 ANTENNA__677__A
*1254 ANTENNA__678__A
*1255 ANTENNA__679__A
*1256 ANTENNA__680__A
*1257 ANTENNA__683__A
*1258 ANTENNA__684__A
*1259 ANTENNA__687__A
*1260 ANTENNA__689__A
*1261 ANTENNA__691__A
*1262 ANTENNA__707__CLK
*1263 ANTENNA__708__CLK
*1264 ANTENNA__709__CLK
*1265 ANTENNA__710__CLK
*1266 ANTENNA__711__CLK
*1267 ANTENNA__712__CLK
*1268 ANTENNA__713__CLK
*1269 ANTENNA__714__CLK
*1270 ANTENNA__715__CLK
*1271 ANTENNA__716__CLK
*1272 ANTENNA__717__CLK
*1273 ANTENNA__718__CLK
*1274 ANTENNA__719__CLK
*1275 ANTENNA__720__CLK
*1276 ANTENNA__721__CLK
*1277 ANTENNA__722__CLK
*1278 ANTENNA__723__CLK
*1279 ANTENNA__724__CLK
*1280 ANTENNA__725__CLK
*1281 ANTENNA__726__CLK
*1282 ANTENNA__727__CLK
*1283 ANTENNA__728__CLK
*1284 ANTENNA__729__CLK
*1285 ANTENNA__730__CLK
*1286 ANTENNA__731__CLK
*1287 ANTENNA__732__CLK
*1288 ANTENNA__733__CLK
*1289 ANTENNA__734__CLK
*1290 ANTENNA__735__CLK
*1291 ANTENNA__736__CLK
*1292 ANTENNA__737__CLK
*1293 ANTENNA__738__CLK
*1294 ANTENNA__739__CLK
*1295 ANTENNA__740__CLK
*1296 ANTENNA__741__CLK
*1297 ANTENNA__742__CLK
*1298 ANTENNA__743__CLK
*1299 ANTENNA__744__CLK
*1300 ANTENNA__745__CLK
*1301 ANTENNA__746__CLK
*1302 ANTENNA__747__CLK
*1303 ANTENNA__748__CLK
*1304 ANTENNA__749__CLK
*1305 ANTENNA__750__CLK
*1306 ANTENNA__751__CLK
*1307 ANTENNA__752__CLK
*1308 ANTENNA__753__CLK
*1309 ANTENNA__754__CLK
*1310 ANTENNA__755__CLK
*1311 ANTENNA__756__CLK
*1312 ANTENNA__757__CLK
*1313 ANTENNA__758__CLK
*1314 ANTENNA__759__CLK
*1315 ANTENNA__760__CLK
*1316 ANTENNA__761__CLK
*1317 ANTENNA__762__CLK
*1318 ANTENNA__763__CLK
*1319 ANTENNA__764__CLK
*1320 ANTENNA__765__CLK
*1321 ANTENNA__766__CLK
*1322 ANTENNA__767__CLK
*1323 ANTENNA__768__CLK
*1324 ANTENNA__769__CLK
*1325 ANTENNA__770__CLK
*1326 ANTENNA__771__CLK
*1327 ANTENNA__772__CLK
*1328 ANTENNA__773__CLK
*1329 ANTENNA__774__CLK
*1330 ANTENNA__775__CLK
*1331 ANTENNA__776__CLK
*1332 ANTENNA__777__CLK
*1333 ANTENNA__778__CLK
*1334 ANTENNA__779__CLK
*1335 ANTENNA__780__CLK
*1336 ANTENNA__781__CLK
*1337 ANTENNA__782__CLK
*1338 ANTENNA__783__CLK
*1339 ANTENNA__784__CLK
*1340 ANTENNA__785__CLK
*1341 ANTENNA__786__CLK
*1342 ANTENNA__787__CLK
*1343 ANTENNA__788__CLK
*1344 ANTENNA__789__CLK
*1345 ANTENNA__790__CLK
*1346 ANTENNA__791__CLK
*1347 ANTENNA__792__CLK
*1348 ANTENNA__793__CLK
*1349 ANTENNA__794__CLK
*1350 ANTENNA__795__CLK
*1351 ANTENNA__796__CLK
*1352 ANTENNA__797__CLK
*1353 ANTENNA__798__CLK
*1354 ANTENNA__799__CLK
*1355 ANTENNA__800__CLK
*1356 ANTENNA__801__CLK
*1357 ANTENNA__802__CLK
*1358 ANTENNA__803__CLK
*1359 ANTENNA__804__CLK
*1360 ANTENNA__805__CLK
*1361 ANTENNA__806__CLK
*1362 ANTENNA__807__CLK
*1363 ANTENNA__808__CLK
*1364 ANTENNA__809__CLK
*1365 ANTENNA__810__CLK
*1366 ANTENNA__811__CLK
*1367 ANTENNA__812__CLK
*1368 ANTENNA__813__CLK
*1369 ANTENNA__814__CLK
*1370 ANTENNA__815__CLK
*1371 ANTENNA__816__CLK
*1372 ANTENNA__817__CLK
*1373 ANTENNA_clkbuf_0_wb_clk_i_A
*1374 ANTENNA_clkbuf_0_wb_clk_i_X
*1375 ANTENNA_clkbuf_2_0_0_wb_clk_i_A
*1376 ANTENNA_clkbuf_2_0_0_wb_clk_i_X
*1377 ANTENNA_clkbuf_2_1_0_wb_clk_i_A
*1378 ANTENNA_clkbuf_2_1_0_wb_clk_i_X
*1379 ANTENNA_clkbuf_2_2_0_wb_clk_i_A
*1380 ANTENNA_clkbuf_2_2_0_wb_clk_i_X
*1381 ANTENNA_clkbuf_2_3_0_wb_clk_i_A
*1382 ANTENNA_clkbuf_2_3_0_wb_clk_i_X
*1383 ANTENNA_clkbuf_3_0__f_wb_clk_i_A
*1384 ANTENNA_clkbuf_3_0__f_wb_clk_i_X
*1385 ANTENNA_clkbuf_3_1__f_wb_clk_i_A
*1386 ANTENNA_clkbuf_3_1__f_wb_clk_i_X
*1387 ANTENNA_clkbuf_3_2__f_wb_clk_i_A
*1388 ANTENNA_clkbuf_3_2__f_wb_clk_i_X
*1389 ANTENNA_clkbuf_3_3__f_wb_clk_i_A
*1390 ANTENNA_clkbuf_3_3__f_wb_clk_i_X
*1391 ANTENNA_clkbuf_3_4__f_wb_clk_i_A
*1392 ANTENNA_clkbuf_3_4__f_wb_clk_i_X
*1393 ANTENNA_clkbuf_3_5__f_wb_clk_i_A
*1394 ANTENNA_clkbuf_3_5__f_wb_clk_i_X
*1395 ANTENNA_clkbuf_3_6__f_wb_clk_i_A
*1396 ANTENNA_clkbuf_3_6__f_wb_clk_i_X
*1397 ANTENNA_clkbuf_3_7__f_wb_clk_i_A
*1398 ANTENNA_clkbuf_3_7__f_wb_clk_i_X
*1399 ANTENNA_clkload0_A
*1400 ANTENNA_clkload1_A
*1401 ANTENNA_clkload2_A
*1402 ANTENNA_clkload3_A
*1403 ANTENNA_fanout100_A
*1404 ANTENNA_fanout100_X
*1405 ANTENNA_fanout102_A
*1406 ANTENNA_fanout103_A
*1407 ANTENNA_fanout103_X
*1408 ANTENNA_fanout104_A
*1409 ANTENNA_fanout105_A
*1410 ANTENNA_fanout105_X
*1411 ANTENNA_fanout87_A
*1412 ANTENNA_fanout87_X
*1413 ANTENNA_fanout88_A
*1414 ANTENNA_fanout88_X
*1415 ANTENNA_fanout89_X
*1416 ANTENNA_fanout90_A
*1417 ANTENNA_fanout90_X
*1418 ANTENNA_fanout91_A
*1419 ANTENNA_fanout91_X
*1420 ANTENNA_fanout92_X
*1421 ANTENNA_fanout93_X
*1422 ANTENNA_fanout94_X
*1423 ANTENNA_fanout95_A
*1424 ANTENNA_fanout95_X
*1425 ANTENNA_fanout96_A
*1426 ANTENNA_fanout96_X
*1427 ANTENNA_fanout97_A
*1428 ANTENNA_fanout98_A
*1429 ANTENNA_fanout98_X
*1430 ANTENNA_fanout99_A
*1431 ANTENNA_fanout99_X
*1432 ANTENNA_hold102_A
*1433 ANTENNA_hold105_A
*1434 ANTENNA_hold106_X
*1435 ANTENNA_hold113_A
*1436 ANTENNA_hold117_A
*1437 ANTENNA_hold121_A
*1438 ANTENNA_hold129_A
*1439 ANTENNA_hold12_A
*1440 ANTENNA_hold132_A
*1441 ANTENNA_hold138_A
*1442 ANTENNA_hold139_A
*1443 ANTENNA_hold139_X
*1444 ANTENNA_hold141_A
*1445 ANTENNA_hold146_A
*1446 ANTENNA_hold151_A
*1447 ANTENNA_hold162_A
*1448 ANTENNA_hold168_A
*1449 ANTENNA_hold178_A
*1450 ANTENNA_hold179_A
*1451 ANTENNA_hold179_X
*1452 ANTENNA_hold185_A
*1453 ANTENNA_hold186_A
*1454 ANTENNA_hold186_X
*1455 ANTENNA_hold188_A
*1456 ANTENNA_hold193_A
*1457 ANTENNA_hold193_X
*1458 ANTENNA_hold197_A
*1459 ANTENNA_hold198_A
*1460 ANTENNA_hold198_X
*1461 ANTENNA_hold19_A
*1462 ANTENNA_hold1_A
*1463 ANTENNA_hold203_A
*1464 ANTENNA_hold203_X
*1465 ANTENNA_hold208_A
*1466 ANTENNA_hold209_A
*1467 ANTENNA_hold209_X
*1468 ANTENNA_hold217_A
*1469 ANTENNA_hold218_A
*1470 ANTENNA_hold219_A
*1471 ANTENNA_hold219_X
*1472 ANTENNA_hold235_A
*1473 ANTENNA_hold236_A
*1474 ANTENNA_hold237_A
*1475 ANTENNA_hold237_X
*1476 ANTENNA_hold254_A
*1477 ANTENNA_hold26_A
*1478 ANTENNA_hold31_A
*1479 ANTENNA_hold34_A
*1480 ANTENNA_hold37_A
*1481 ANTENNA_hold46_A
*1482 ANTENNA_hold51_A
*1483 ANTENNA_hold56_A
*1484 ANTENNA_hold61_A
*1485 ANTENNA_hold64_A
*1486 ANTENNA_hold69_A
*1487 ANTENNA_hold6_A
*1488 ANTENNA_hold76_A
*1489 ANTENNA_hold81_A
*1490 ANTENNA_hold84_A
*1491 ANTENNA_hold91_A
*1492 ANTENNA_hold96_A
*1493 ANTENNA_hold99_A
*1494 ANTENNA_hold9_A
*1495 ANTENNA_input12_A
*1496 ANTENNA_input13_A
*1497 ANTENNA_input15_A
*1498 ANTENNA_input1_A
*1499 ANTENNA_input1_X
*1500 ANTENNA_input20_X
*1501 ANTENNA_input21_X
*1502 ANTENNA_input28_X
*1503 ANTENNA_input30_X
*1504 ANTENNA_input31_X
*1505 ANTENNA_input3_A
*1506 ANTENNA_input41_X
*1507 ANTENNA_input47_X
*1508 ANTENNA_input48_X
*1509 ANTENNA_input50_X
*1510 ANTENNA_input51_A
*1511 ANTENNA_input52_A
*1512 ANTENNA_input5_A
*1513 ANTENNA_input6_A
*1514 ANTENNA_input8_A
*1515 ANTENNA_output55_A
*1516 ANTENNA_output56_A
*1517 ANTENNA_output57_A
*1518 ANTENNA_output64_A
*1519 ANTENNA_output66_A
*1520 ANTENNA_output67_A
*1521 ANTENNA_output77_A
*1522 ANTENNA_output80_A
*1523 ANTENNA_output83_A
*1524 ANTENNA_output84_A
*1525 ANTENNA_output86_A
*1526 FILLER_0_1019
*1527 FILLER_0_1037
*1528 FILLER_0_1067
*1529 FILLER_0_1079
*1530 FILLER_0_109
*1531 FILLER_0_1091
*1532 FILLER_0_1093
*1533 FILLER_0_1105
*1534 FILLER_0_1117
*1535 FILLER_0_1121
*1536 FILLER_0_113
*1537 FILLER_0_1133
*1538 FILLER_0_1145
*1539 FILLER_0_1149
*1540 FILLER_0_1161
*1541 FILLER_0_1173
*1542 FILLER_0_1177
*1543 FILLER_0_1189
*1544 FILLER_0_1201
*1545 FILLER_0_1205
*1546 FILLER_0_1217
*1547 FILLER_0_1229
*1548 FILLER_0_1233
*1549 FILLER_0_1245
*1550 FILLER_0_125
*1551 FILLER_0_1257
*1552 FILLER_0_1261
*1553 FILLER_0_1273
*1554 FILLER_0_1285
*1555 FILLER_0_1289
*1556 FILLER_0_1301
*1557 FILLER_0_1313
*1558 FILLER_0_1317
*1559 FILLER_0_1329
*1560 FILLER_0_1341
*1561 FILLER_0_1345
*1562 FILLER_0_1357
*1563 FILLER_0_1369
*1564 FILLER_0_137
*1565 FILLER_0_1373
*1566 FILLER_0_1385
*1567 FILLER_0_1397
*1568 FILLER_0_1401
*1569 FILLER_0_141
*1570 FILLER_0_1413
*1571 FILLER_0_1425
*1572 FILLER_0_1429
*1573 FILLER_0_1441
*1574 FILLER_0_1453
*1575 FILLER_0_1457
*1576 FILLER_0_1469
*1577 FILLER_0_1481
*1578 FILLER_0_1485
*1579 FILLER_0_1497
*1580 FILLER_0_15
*1581 FILLER_0_1509
*1582 FILLER_0_1513
*1583 FILLER_0_1525
*1584 FILLER_0_153
*1585 FILLER_0_1537
*1586 FILLER_0_1541
*1587 FILLER_0_1553
*1588 FILLER_0_1565
*1589 FILLER_0_1569
*1590 FILLER_0_1581
*1591 FILLER_0_1593
*1592 FILLER_0_1597
*1593 FILLER_0_1609
*1594 FILLER_0_1621
*1595 FILLER_0_1625
*1596 FILLER_0_1637
*1597 FILLER_0_1649
*1598 FILLER_0_165
*1599 FILLER_0_1653
*1600 FILLER_0_1665
*1601 FILLER_0_1677
*1602 FILLER_0_1681
*1603 FILLER_0_169